===================================================
Test cases for the ``5-text_indentation.py`` module
===================================================

This function parses a text argument passed to it and prints two new lines anywhere it founds the characters '.', '?' and ':'
text_indentation(text)

Valid Inputs
============


::
Passsing a simple one line string with ?
    >>> text_indentation = __import__('5-text_indentation').text_indentation
    >>> text_indentation("Hello?")
    Hello?
    <BLANKLINE>

::
Space at the beginnning of the string
    >>> text_indentation("   Hi there.")
    Hi there.
    <BLANKLINE>

::
Passing white space characters
    >>> text_indentation("          ")

::
Passing with space at the end of the string
    >>> text_indentation("Hello.   ")
    Hello.
    <BLANKLINE>

::
Stings with spaces inbetween
    >>> text_indentation("    Woah now.    This is messy.   ")
    Woah now.
    <BLANKLINE>
    This is messy.
    <BLANKLINE>

::
Passing a string without any of the afromentioned delims
    >>> text_indentation("No ending period, what bad grammar")
    No ending period, what bad grammar

::
Missing strings with newline characters inbetween
    >>> text_indentation("Let's print a new-line! Here goes:\nPrinted.")
    Let's print a new-line! Here goes:
    <BLANKLINE>
    <BLANKLINE>
    Printed.
    <BLANKLINE>

::
Passing newline characters at beginning of the string
    >>> text_indentation("\n\n\n We just printed three new lines.")
    <BLANKLINE>
    <BLANKLINE>
    <BLANKLINE>
    We just printed three new lines.
    <BLANKLINE>

::
Passing with a newline character surround with space
    >>> text_indentation("A sneaky \n new line.")
    A sneaky 
    new line.
    <BLANKLINE>

::
Passing a full string
    >>> text_indentation("Lorem ipsum dolor sit amet, consectetur adipiscing "
    ... "elit. Quonam modo? Utrum igitur tibi litteram videor an totas paginas "
    ... "commovere? Non autem hoc: igitur ne illud quidem. Fortasse id optimum, "
    ... "sed ubi illud: Plus semper voluptatis? Teneo, inquit, finem illi videri "
    ... "nihil dolere. Transfer idem ad modestiam vel temperantiam, quae est "
    ... "moderatio cupiditatum rationi oboediens. Si id dicis, vicimus. Inde "
    ... "sermone vario sex illa a Dipylo stadia confecimus. Sin aliud quid "
    ... "voles, postea. Quae animi affectio suum cuique tribuens atque hanc, "
    ... "quam dico. Utinam quidem dicerent alium alio beatiorem! Iam ruinas "
    ... "videres") # doctest: +NORMALIZE_WHITESPACE
    Lorem ipsum dolor sit amet, consectetur adipiscing elit.
    <BLANKLINE>
    Quonam modo?
    <BLANKLINE>
    Utrum igitur tibi litteram videor an totas paginas commovere?
    <BLANKLINE>
    Non autem hoc:
    <BLANKLINE>
    igitur ne illud quidem.
    <BLANKLINE>
    Fortasse id optimum, sed ubi illud:
    <BLANKLINE>
    Plus semper voluptatis?
    <BLANKLINE>
    Teneo, inquit, finem illi videri nihil dolere.
    <BLANKLINE>
    Transfer idem ad modestiam vel temperantiam, 
    quae est moderatio cupiditatum rationi oboediens.
    <BLANKLINE>
    Si id dicis, vicimus.
    <BLANKLINE>
    Inde sermone vario sex illa a Dipylo stadia confecimus.
    <BLANKLINE>
    Sin aliud quid voles, postea.
    <BLANKLINE>
    Quae animi affectio suum cuique tribuens atque hanc, quam dico.
    <BLANKLINE>
    Utinam quidem dicerent alium alio beatiorem! Iam ruinas videres

Invalid Inputs
==============

::
Passing a number
    >>> text_indentation(7)
    Traceback (most recent call last):
    TypeError: text must be a string

::
Passing a dict
    >>> text_indentation({"one": 1, "two": 2})
    Traceback (most recent call last):
    TypeError: text must be a string

::
Passing None
    >>> text_indentation(None)
    Traceback (most recent call last):
    TypeError: text must be a string
